data/open_dss/uhs8_1247/uhs8_1247--udt12494/Loads_scenario_20.dss
New Load.load_p1ulv3558 conn=wye bus1=p1ulv3558.1.2 kV=0.2080002494301389 Vminpu=0.8 Vmaxpu=1.2 model=1 kW=11.47 kvar=0.8102961810428216 Phases=2

New Load.load_p1ulv3559 conn=wye bus1=p1ulv3559.1.2 kV=0.2080002494301389 Vminpu=0.8 Vmaxpu=1.2 model=1 kW=4.09004 kvar=0.8305180443395029 Phases=2

New Load.load_p1ulv3560 conn=wye bus1=p1ulv3560.1.2 kV=0.2080002494301389 Vminpu=0.8 Vmaxpu=1.2 model=1 kW=4.200040000000001 kvar=0.8506543699954566 Phases=2

New Load.load_p1ulv3561 conn=wye bus1=p1ulv3561.1.2 kV=0.2080002494301389 Vminpu=0.8 Vmaxpu=1.2 model=1 kW=5.12005 kvar=1.0396704953791336 Phases=2

New Load.load_p1ulv3562 conn=wye bus1=p1ulv3562.1.2 kV=0.2080002494301389 Vminpu=0.8 Vmaxpu=1.2 model=1 kW=4.670050000000001 kvar=0.9507348841529898 Phases=2

New Load.load_p1ulv3563 conn=wye bus1=p1ulv3563.1.2 kV=0.2080002494301389 Vminpu=0.8 Vmaxpu=1.2 model=1 kW=5.16005 kvar=1.0504897247296356 Phases=2

New Load.load_p1ulv3564 conn=wye bus1=p1ulv3564.1.2 kV=0.2080002494301389 Vminpu=0.8 Vmaxpu=1.2 model=1 kW=3.18003 kvar=0.6507075106785133 Phases=2

New Load.load_p1ulv3565 conn=wye bus1=p1ulv3565.1.2 kV=0.2080002494301389 Vminpu=0.8 Vmaxpu=1.2 model=1 kW=13.8201 kvar=1.2800322515103388 Phases=2

New Load.load_p1ulv3566 conn=wye bus1=p1ulv3566.1.2 kV=0.2080002494301389 Vminpu=0.8 Vmaxpu=1.2 model=1 kW=3.7500400000000003 kvar=0.7595136983594827 Phases=2

New Load.load_p1ulv3567 conn=wye bus1=p1ulv3567.1.2 kV=0.2080002494301389 Vminpu=0.8 Vmaxpu=1.2 model=1 kW=3.21003 kvar=0.6501428670480555 Phases=2

New Load.load_p1ulv3568 conn=wye bus1=p1ulv3568.1.2 kV=0.2080002494301389 Vminpu=0.8 Vmaxpu=1.2 model=1 kW=3.85004 kvar=0.7797671809452545 Phases=2

New Load.load_p1ulv3572 conn=wye bus1=p1ulv3572.1.2 kV=0.2080002494301389 Vminpu=0.8 Vmaxpu=1.2 model=1 kW=5.340050000000001 kvar=1.078742398644737 Phases=2

New Load.load_p1ulv3573 conn=wye bus1=p1ulv3573.1.2 kV=0.2080002494301389 Vminpu=0.8 Vmaxpu=1.2 model=1 kW=4.17004 kvar=0.8489421946902781 Phases=2

New Load.load_p1ulv3574 conn=wye bus1=p1ulv3574.1.2 kV=0.2080002494301389 Vminpu=0.8 Vmaxpu=1.2 model=1 kW=4.22004 kvar=0.8591212600552419 Phases=2

New Load.load_p1ulv3575 conn=wye bus1=p1ulv3575.1.2 kV=0.2080002494301389 Vminpu=0.8 Vmaxpu=1.2 model=1 kW=5.10005 kvar=1.0409343578723245 Phases=2

New Load.load_p1ulv3581 conn=wye bus1=p1ulv3581.1.2 kV=0.2080002494301389 Vminpu=0.8 Vmaxpu=1.2 model=1 kW=3.82004 kvar=0.7796807647859518 Phases=2

New Load.load_p1ulv3582 conn=wye bus1=p1ulv3582.1.2 kV=0.2080002494301389 Vminpu=0.8 Vmaxpu=1.2 model=1 kW=12.44 kvar=1.0005321664784275 Phases=2

New Load.load_p1ulv3583 conn=wye bus1=p1ulv3583.1.2 kV=0.2080002494301389 Vminpu=0.8 Vmaxpu=1.2 model=1 kW=9.5201 kvar=1.9281517956480756 Phases=2

New Load.load_p1ulv3584 conn=wye bus1=p1ulv3584.1.2 kV=0.2080002494301389 Vminpu=0.8 Vmaxpu=1.2 model=1 kW=12.2901 kvar=0.9701519425997696 Phases=2

New Load.load_p1ulv3585 conn=wye bus1=p1ulv3585.1.2 kV=0.2080002494301389 Vminpu=0.8 Vmaxpu=1.2 model=1 kW=13.1601 kvar=1.149324202708102 Phases=2

New Load.load_p1ulv7258 conn=wye bus1=p1ulv7258.1.2 kV=0.2080002494301389 Vminpu=0.8 Vmaxpu=1.2 model=1 kW=3.0100300000000004 kvar=0.6096359018765115 Phases=2

New Load.load_p1ulv7262 conn=wye bus1=p1ulv7262.1.2 kV=0.2080002494301389 Vminpu=0.8 Vmaxpu=1.2 model=1 kW=1.50002 kvar=0.31004324962182517 Phases=2

New Load.load_p1ulv7695 conn=wye bus1=p1ulv7695.1.2 kV=0.2080002494301389 Vminpu=0.8 Vmaxpu=1.2 model=1 kW=11.2101 kvar=2.282166812955628 Phases=2

New Load.load_p1ulv7696 conn=wye bus1=p1ulv7696.1.2.3 kV=0.48 Vminpu=0.8 Vmaxpu=1.2 model=1 kW=35.940400000000004 kvar=7.2980094866503675 Phases=3

New Load.load_p1ulv7697 conn=wye bus1=p1ulv7697.1.2 kV=0.2080002494301389 Vminpu=0.8 Vmaxpu=1.2 model=1 kW=5.91006 kvar=1.200088867866603 Phases=2

New Load.load_p1ulv7698 conn=wye bus1=p1ulv7698.1.2.3 kV=0.48 Vminpu=0.8 Vmaxpu=1.2 model=1 kW=22.7702 kvar=4.623686314368404 Phases=3

New Load.load_p1ulv7699 conn=wye bus1=p1ulv7699.1.2.3 kV=0.48 Vminpu=0.8 Vmaxpu=1.2 model=1 kW=27.6803 kvar=5.620724643947429 Phases=3

New Load.load_p1ulv7700 conn=wye bus1=p1ulv7700.1.2 kV=0.2080002494301389 Vminpu=0.8 Vmaxpu=1.2 model=1 kW=4.34004 kvar=0.8790092456155372 Phases=2

New Load.load_p1ulv7702 conn=wye bus1=p1ulv7702.1.2 kV=0.2080002494301389 Vminpu=0.8 Vmaxpu=1.2 model=1 kW=3.48003 kvar=0.71028378024263 Phases=2

New Load.load_p1ulv7703 conn=wye bus1=p1ulv7703.1.2.3 kV=0.48 Vminpu=0.8 Vmaxpu=1.2 model=1 kW=24.360200000000003 kvar=4.946549584776472 Phases=3

New Load.load_p1ulv7704 conn=wye bus1=p1ulv7704.1.2.3 kV=0.48 Vminpu=0.8 Vmaxpu=1.2 model=1 kW=25.260300000000004 kvar=5.129322685213139 Phases=3

New Load.load_p1ulv7705 conn=wye bus1=p1ulv7705.1.2 kV=0.2080002494301389 Vminpu=0.8 Vmaxpu=1.2 model=1 kW=3.9800400000000002 kvar=0.8102617463034154 Phases=2

New Load.load_p1ulv7706 conn=wye bus1=p1ulv7706.1.2 kV=0.2080002494301389 Vminpu=0.8 Vmaxpu=1.2 model=1 kW=10.680100000000001 kvar=2.1686868014372296 Phases=2

New Load.load_p1ulv7707 conn=wye bus1=p1ulv7707.1.2 kV=0.2080002494301389 Vminpu=0.8 Vmaxpu=1.2 model=1 kW=5.26005 kvar=1.070847855459563 Phases=2

New Load.load_p1ulv7708 conn=wye bus1=p1ulv7708.1.2 kV=0.2080002494301389 Vminpu=0.8 Vmaxpu=1.2 model=1 kW=3.18003 kvar=0.6507075106785133 Phases=2

New Load.load_p1ulv7709 conn=wye bus1=p1ulv7709.1.2 kV=0.2080002494301389 Vminpu=0.8 Vmaxpu=1.2 model=1 kW=4.47004 kvar=0.9100165868800613 Phases=2

New Load.load_p1ulv7710 conn=wye bus1=p1ulv7710.1.2 kV=0.2080002494301389 Vminpu=0.8 Vmaxpu=1.2 model=1 kW=1.85002 kvar=0.38047547394451825 Phases=2

New Load.load_p1ulv7711 conn=wye bus1=p1ulv7711.1.2 kV=0.2080002494301389 Vminpu=0.8 Vmaxpu=1.2 model=1 kW=4.27004 kvar=0.869300325420206 Phases=2

New Load.load_p1ulv7712 conn=wye bus1=p1ulv7712.1.2 kV=0.2080002494301389 Vminpu=0.8 Vmaxpu=1.2 model=1 kW=9.89 kvar=0.49029398470315966 Phases=2

New Load.load_p1ulv7713 conn=wye bus1=p1ulv7713.1.2 kV=0.2080002494301389 Vminpu=0.8 Vmaxpu=1.2 model=1 kW=4.200040000000001 kvar=0.8506543699954566 Phases=2

New Load.load_p1ulv7714 conn=wye bus1=p1ulv7714.1.2 kV=0.2080002494301389 Vminpu=0.8 Vmaxpu=1.2 model=1 kW=5.07005 kvar=1.0295175623474335 Phases=2

New Load.load_p1ulv7715 conn=wye bus1=p1ulv7715.1.2 kV=0.2080002494301389 Vminpu=0.8 Vmaxpu=1.2 model=1 kW=11.6 kvar=0.8304008874096844 Phases=2

New Load.load_p1ulv8674 conn=wye bus1=p1ulv8674.1.2.3 kV=0.48 Vminpu=0.8 Vmaxpu=1.2 model=1 kW=25.230300000000003 kvar=5.123230925394118 Phases=3

New Load.load_p1ulv8675 conn=wye bus1=p1ulv8675.1.2.3 kV=0.48 Vminpu=0.8 Vmaxpu=1.2 model=1 kW=31.170300000000005 kvar=6.329399369560104 Phases=3

New Load.load_p1ulv8676 conn=wye bus1=p1ulv8676.1.2.3 kV=0.48 Vminpu=0.8 Vmaxpu=1.2 model=1 kW=32.7503 kvar=6.650232053361831 Phases=3

New Load.load_p1ulv8677 conn=wye bus1=p1ulv8677.1.2.3 kV=0.48 Vminpu=0.8 Vmaxpu=1.2 model=1 kW=33.0403 kvar=6.7091190649456935 Phases=3

New Load.load_p1ulv8678 conn=wye bus1=p1ulv8678.1.2.3 kV=0.48 Vminpu=0.8 Vmaxpu=1.2 model=1 kW=33.5103 kvar=6.804556635443674 Phases=3

New Load.load_p1ulv8679 conn=wye bus1=p1ulv8679.1.2.3 kV=0.48 Vminpu=0.8 Vmaxpu=1.2 model=1 kW=30.6503 kvar=6.223808866030422 Phases=3

New Load.load_p1ulv8680 conn=wye bus1=p1ulv8680.1.2.3 kV=0.48 Vminpu=0.8 Vmaxpu=1.2 model=1 kW=31.030300000000004 kvar=6.300971157071342 Phases=3

New Load.load_p1ulv8681 conn=wye bus1=p1ulv8681.1.2.3 kV=0.48 Vminpu=0.8 Vmaxpu=1.2 model=1 kW=36.7004 kvar=7.4523340687322115 Phases=3

New Load.load_p1ulv8682 conn=wye bus1=p1ulv8682.1.2.3 kV=0.48 Vminpu=0.8 Vmaxpu=1.2 model=1 kW=24.340200000000003 kvar=4.942488411563792 Phases=3

New Load.load_p1ulv8683 conn=wye bus1=p1ulv8683.1.2 kV=0.2080002494301389 Vminpu=0.8 Vmaxpu=1.2 model=1 kW=17.7902 kvar=3.6124541844110625 Phases=2

New Load.load_p1ulv8684 conn=wye bus1=p1ulv8684.1.2 kV=0.2080002494301389 Vminpu=0.8 Vmaxpu=1.2 model=1 kW=16.6202 kvar=3.383562043575448 Phases=2

New Load.load_p1ulv8685 conn=wye bus1=p1ulv8685.1.2 kV=0.2080002494301389 Vminpu=0.8 Vmaxpu=1.2 model=1 kW=12.930100000000001 kvar=2.6187955518228994 Phases=2

New Load.load_p1ulv8686 conn=wye bus1=p1ulv8686.1.2 kV=0.2080002494301389 Vminpu=0.8 Vmaxpu=1.2 model=1 kW=16.0502 kvar=3.259132114907896 Phases=2

New Load.load_p1ulv8687 conn=wye bus1=p1ulv8687.1.2 kV=0.2080002494301389 Vminpu=0.8 Vmaxpu=1.2 model=1 kW=18.6402 kvar=3.775289660953064 Phases=2

New Load.load_p1ulv8688 conn=wye bus1=p1ulv8688.1.2 kV=0.2080002494301389 Vminpu=0.8 Vmaxpu=1.2 model=1 kW=1.38001 kvar=0.28022298226153225 Phases=2

New Load.load_p1ulv9094 conn=wye bus1=p1ulv9094.1.2.3 kV=0.48 Vminpu=0.8 Vmaxpu=1.2 model=1 kW=35.5004 kvar=7.208663675971406 Phases=3

New Load.load_p1ulv9095 conn=wye bus1=p1ulv9095.1.2.3 kV=0.48 Vminpu=0.8 Vmaxpu=1.2 model=1 kW=38.60039999999999 kvar=7.838145523936819 Phases=3

New Load.load_p1ulv9096 conn=wye bus1=p1ulv9096.1.2 kV=0.2080002494301389 Vminpu=0.8 Vmaxpu=1.2 model=1 kW=11.56 kvar=0.8201678426594468 Phases=2

New Load.load_p1ulv9097 conn=wye bus1=p1ulv9097.1.2 kV=0.2080002494301389 Vminpu=0.8 Vmaxpu=1.2 model=1 kW=4.71005 kvar=0.9588781364449609 Phases=2

New Load.load_p1ulv9098 conn=wye bus1=p1ulv9098.1.2 kV=0.2080002494301389 Vminpu=0.8 Vmaxpu=1.2 model=1 kW=4.97005 kvar=1.009211696284033 Phases=2

New Load.load_p1ulv9099 conn=wye bus1=p1ulv9099.1.2 kV=0.2080002494301389 Vminpu=0.8 Vmaxpu=1.2 model=1 kW=12.2301 kvar=0.960477617731872 Phases=2

New Load.load_p1ulv9100 conn=wye bus1=p1ulv9100.1.2 kV=0.2080002494301389 Vminpu=0.8 Vmaxpu=1.2 model=1 kW=4.98005 kvar=1.011242282890373 Phases=2

New Load.load_p1ulv9101 conn=wye bus1=p1ulv9101.1.2 kV=0.2080002494301389 Vminpu=0.8 Vmaxpu=1.2 model=1 kW=4.590050000000001 kvar=0.9296449774282256 Phases=2

New Load.load_p1ulv9102 conn=wye bus1=p1ulv9102.1.2 kV=0.2080002494301389 Vminpu=0.8 Vmaxpu=1.2 model=1 kW=12.14 kvar=0.9397717187211114 Phases=2

New Load.load_p1ulv9103 conn=wye bus1=p1ulv9103.1.2 kV=0.2080002494301389 Vminpu=0.8 Vmaxpu=1.2 model=1 kW=13.010100000000001 kvar=2.6418134807144593 Phases=2

New Load.load_p1ulv9104 conn=wye bus1=p1ulv9104.1.2 kV=0.2080002494301389 Vminpu=0.8 Vmaxpu=1.2 model=1 kW=6.48006 kvar=1.3192190861777544 Phases=2

New Load.load_p1ulv9105 conn=wye bus1=p1ulv9105.1.2 kV=0.2080002494301389 Vminpu=0.8 Vmaxpu=1.2 model=1 kW=7.23007 kvar=1.4681283304900956 Phases=2

New Load.load_p1ulv9106 conn=wye bus1=p1ulv9106.1.2 kV=0.2080002494301389 Vminpu=0.8 Vmaxpu=1.2 model=1 kW=5.02005 kvar=1.0193646293157332 Phases=2

New Load.load_p1ulv9107 conn=wye bus1=p1ulv9107.1.2 kV=0.2080002494301389 Vminpu=0.8 Vmaxpu=1.2 model=1 kW=11.52 kvar=0.8205013197951115 Phases=2

New Load.load_p1ulv9108 conn=wye bus1=p1ulv9108.1.2 kV=0.2080002494301389 Vminpu=0.8 Vmaxpu=1.2 model=1 kW=3.91004 kvar=0.7898663736101474 Phases=2

New Load.load_p1ulv9109 conn=wye bus1=p1ulv9109.1.2 kV=0.2080002494301389 Vminpu=0.8 Vmaxpu=1.2 model=1 kW=13.3901 kvar=1.199106114871181 Phases=2

New Load.load_p1ulv9110 conn=wye bus1=p1ulv9110.1.2 kV=0.2080002494301389 Vminpu=0.8 Vmaxpu=1.2 model=1 kW=4.42004 kvar=0.8998375215150975 Phases=2

New Load.load_p1ulv9111 conn=wye bus1=p1ulv9111.1.2 kV=0.2080002494301389 Vminpu=0.8 Vmaxpu=1.2 model=1 kW=5.99006 kvar=1.2194642456011087 Phases=2

New Load.load_p1ulv9112 conn=wye bus1=p1ulv9112.1.2 kV=0.2080002494301389 Vminpu=0.8 Vmaxpu=1.2 model=1 kW=4.2400400000000005 kvar=0.8609768434346036 Phases=2

New Load.load_p1ulv9113 conn=wye bus1=p1ulv9113.1.2 kV=0.2080002494301389 Vminpu=0.8 Vmaxpu=1.2 model=1 kW=5.07005 kvar=1.0295175623474335 Phases=2

New Load.load_p1ulv9114 conn=wye bus1=p1ulv9114.1.2 kV=0.2080002494301389 Vminpu=0.8 Vmaxpu=1.2 model=1 kW=4.86005 kvar=0.9894153325398525 Phases=2

New Load.load_p1ulv9115 conn=wye bus1=p1ulv9115.1.2 kV=0.2080002494301389 Vminpu=0.8 Vmaxpu=1.2 model=1 kW=15.2601 kvar=1.5798072311469755 Phases=2

New Load.load_p1ulv9116 conn=wye bus1=p1ulv9116.1.2 kV=0.2080002494301389 Vminpu=0.8 Vmaxpu=1.2 model=1 kW=7.46007 kvar=1.510923978336398 Phases=2

New Load.load_p1ulv9117 conn=wye bus1=p1ulv9117.1.2 kV=0.2080002494301389 Vminpu=0.8 Vmaxpu=1.2 model=1 kW=12.44 kvar=1.0005321664784275 Phases=2

New Load.load_p1ulv11303 conn=wye bus1=p1ulv11303.1.2.3 kV=0.48 Vminpu=0.8 Vmaxpu=1.2 model=1 kW=30.550299999999996 kvar=6.203502999967021 Phases=3

New Load.load_p1ulv11305 conn=wye bus1=p1ulv11305.1.2.3 kV=0.48 Vminpu=0.8 Vmaxpu=1.2 model=1 kW=26.550299999999996 kvar=5.391268357431004 Phases=3

New Load.load_p1ulv11310 conn=wye bus1=p1ulv11310.1.2.3 kV=0.48 Vminpu=0.8 Vmaxpu=1.2 model=1 kW=29.070299999999996 kvar=5.902976182228695 Phases=3

New Load.load_p1ulv11318 conn=wye bus1=p1ulv11318.1.2.3 kV=0.48 Vminpu=0.8 Vmaxpu=1.2 model=1 kW=23.840200000000003 kvar=4.840959081246789 Phases=3

New Load.load_p1ulv11319 conn=wye bus1=p1ulv11319.1.2.3 kV=0.48 Vminpu=0.8 Vmaxpu=1.2 model=1 kW=28.080300000000005 kvar=5.701948108201031 Phases=3

New Load.load_p1ulv11438 conn=wye bus1=p1ulv11438.1.2.3 kV=0.48 Vminpu=0.8 Vmaxpu=1.2 model=1 kW=47.7605 kvar=9.69818316121036 Phases=3

New Load.load_p1ulv11439 conn=wye bus1=p1ulv11439.1.2.3 kV=0.48 Vminpu=0.8 Vmaxpu=1.2 model=1 kW=35.6404 kvar=7.237091888460166 Phases=3

New Load.load_p1ulv11440 conn=wye bus1=p1ulv11440.1.2.3 kV=0.48 Vminpu=0.8 Vmaxpu=1.2 model=1 kW=34.2903 kvar=6.962942390738197 Phases=3

New Load.load_p1ulv11441 conn=wye bus1=p1ulv11441.1.2.3 kV=0.48 Vminpu=0.8 Vmaxpu=1.2 model=1 kW=79.1308 kvar=16.068194262897265 Phases=3

New Load.load_p1ulv11442 conn=wye bus1=p1ulv11442.1.2.3 kV=0.48 Vminpu=0.8 Vmaxpu=1.2 model=1 kW=45.8105 kvar=9.302218772974054 Phases=3

New Load.load_p1ulv11443 conn=wye bus1=p1ulv11443.1.2 kV=0.2080002494301389 Vminpu=0.8 Vmaxpu=1.2 model=1 kW=1.38001 kvar=0.28022298226153225 Phases=2

New Load.load_p1ulv11493 conn=wye bus1=p1ulv11493.1.2 kV=0.2080002494301389 Vminpu=0.8 Vmaxpu=1.2 model=1 kW=2.70003 kvar=0.5496756371472675 Phases=2

New Load.load_p1ulv11494 conn=wye bus1=p1ulv11494.1.2 kV=0.2080002494301389 Vminpu=0.8 Vmaxpu=1.2 model=1 kW=4.13004 kvar=0.840798942398307 Phases=2

New Load.load_p1ulv11496 conn=wye bus1=p1ulv11496.1.2 kV=0.2080002494301389 Vminpu=0.8 Vmaxpu=1.2 model=1 kW=3.81004 kvar=0.769665394243948 Phases=2

New Load.load_p1ulv11497 conn=wye bus1=p1ulv11497.1.2 kV=0.2080002494301389 Vminpu=0.8 Vmaxpu=1.2 model=1 kW=5.96006 kvar=1.2102418008983036 Phases=2

New Load.load_p1ulv11498 conn=wye bus1=p1ulv11498.1.2 kV=0.2080002494301389 Vminpu=0.8 Vmaxpu=1.2 model=1 kW=3.3000300000000005 kvar=0.6700996718520332 Phases=2

New Load.load_p1ulv12391 conn=wye bus1=p1ulv12391.1.2 kV=0.2080002494301389 Vminpu=0.8 Vmaxpu=1.2 model=1 kW=3.04003 kvar=0.6204785592224786 Phases=2

New Load.load_p1ulv12392 conn=wye bus1=p1ulv12392.1.2 kV=0.2080002494301389 Vminpu=0.8 Vmaxpu=1.2 model=1 kW=3.02003 kvar=0.6100756371530351 Phases=2

New Load.load_p1ulv12393 conn=wye bus1=p1ulv12393.1.2 kV=0.2080002494301389 Vminpu=0.8 Vmaxpu=1.2 model=1 kW=2.97003 kvar=0.5999751474699353 Phases=2

New Load.load_p1ulv12394 conn=wye bus1=p1ulv12394.1.2 kV=0.2080002494301389 Vminpu=0.8 Vmaxpu=1.2 model=1 kW=3.2600300000000004 kvar=0.6602696083409414 Phases=2

New Load.load_p1ulv12395 conn=wye bus1=p1ulv12395.1.2 kV=0.2080002494301389 Vminpu=0.8 Vmaxpu=1.2 model=1 kW=3.50004 kvar=0.7107134345654403 Phases=2

New Load.load_p1ulv12396 conn=wye bus1=p1ulv12396.1.2 kV=0.2080002494301389 Vminpu=0.8 Vmaxpu=1.2 model=1 kW=3.10003 kvar=0.6294879397252322 Phases=2

New Load.load_p1ulv12397 conn=wye bus1=p1ulv12397.1.2 kV=0.2080002494301389 Vminpu=0.8 Vmaxpu=1.2 model=1 kW=2.75003 kvar=0.5598547025122315 Phases=2

New Load.load_p1ulv12398 conn=wye bus1=p1ulv12398.1.2 kV=0.2080002494301389 Vminpu=0.8 Vmaxpu=1.2 model=1 kW=2.58003 kvar=0.5198336154266855 Phases=2

New Load.load_p1ulv12399 conn=wye bus1=p1ulv12398.1.2 kV=0.2080002494301389 Vminpu=0.8 Vmaxpu=1.2 model=1 kW=2.75003 kvar=0.5598547025122315 Phases=2

New Load.load_p1ulv12400 conn=wye bus1=p1ulv12400.1.2 kV=0.2080002494301389 Vminpu=0.8 Vmaxpu=1.2 model=1 kW=2.74003 kvar=0.5606733585797765 Phases=2

New Load.load_p1ulv12401 conn=wye bus1=p1ulv12401.1.2 kV=0.2080002494301389 Vminpu=0.8 Vmaxpu=1.2 model=1 kW=2.59003 kvar=0.5299798976370255 Phases=2

New Load.load_p1ulv12402 conn=wye bus1=p1ulv12402.1.2 kV=0.2080002494301389 Vminpu=0.8 Vmaxpu=1.2 model=1 kW=2.58003 kvar=0.5198336154266855 Phases=2

New Load.load_p1ulv12403 conn=wye bus1=p1ulv12403.1.2 kV=0.2080002494301389 Vminpu=0.8 Vmaxpu=1.2 model=1 kW=2.85003 kvar=0.5802128332421591 Phases=2

New Load.load_p1ulv12404 conn=wye bus1=p1ulv12404.1.2 kV=0.2080002494301389 Vminpu=0.8 Vmaxpu=1.2 model=1 kW=2.69003 kvar=0.5504422049321929 Phases=2

New Load.load_p1ulv12405 conn=wye bus1=p1ulv12405.1.2 kV=0.2080002494301389 Vminpu=0.8 Vmaxpu=1.2 model=1 kW=2.85003 kvar=0.5802128332421591 Phases=2

New Load.load_p1ulv12406 conn=wye bus1=p1ulv12405.1.2 kV=0.2080002494301389 Vminpu=0.8 Vmaxpu=1.2 model=1 kW=2.89003 kvar=0.5898631429656088 Phases=2

New Load.load_p1ulv12407 conn=wye bus1=p1ulv12407.1.2 kV=0.2080002494301389 Vminpu=0.8 Vmaxpu=1.2 model=1 kW=2.99003 kvar=0.6102734204701886 Phases=2

New Load.load_p1ulv12408 conn=wye bus1=p1ulv12408.1.2 kV=0.2080002494301389 Vminpu=0.8 Vmaxpu=1.2 model=1 kW=2.8000300000000005 kvar=0.5700337678771953 Phases=2

New Load.load_p1ulv12409 conn=wye bus1=p1ulv12409.1.2 kV=0.2080002494301389 Vminpu=0.8 Vmaxpu=1.2 model=1 kW=2.54003 kvar=0.5197487439894416 Phases=2

New Load.load_p1ulv12410 conn=wye bus1=p1ulv12409.1.2 kV=0.2080002494301389 Vminpu=0.8 Vmaxpu=1.2 model=1 kW=2.67003 kvar=0.5393722093713369 Phases=2

New Load.load_p1ulv12411 conn=wye bus1=p1ulv12411.1.2 kV=0.2080002494301389 Vminpu=0.8 Vmaxpu=1.2 model=1 kW=2.86003 kvar=0.5807538611730713 Phases=2

New Load.load_p1ulv12412 conn=wye bus1=p1ulv12412.1.2 kV=0.2080002494301389 Vminpu=0.8 Vmaxpu=1.2 model=1 kW=3.02003 kvar=0.6100756371530351 Phases=2

New Load.load_p1ulv12413 conn=wye bus1=p1ulv12412.1.2 kV=0.2080002494301389 Vminpu=0.8 Vmaxpu=1.2 model=1 kW=2.73003 kvar=0.5500561486197115 Phases=2

New Load.load_p1ulv12414 conn=wye bus1=p1ulv12414.1.2 kV=0.2080002494301389 Vminpu=0.8 Vmaxpu=1.2 model=1 kW=4.19004 kvar=0.8508239104029033 Phases=2

New Load.load_p1ulv12415 conn=wye bus1=p1ulv12415.1.2 kV=0.2080002494301389 Vminpu=0.8 Vmaxpu=1.2 model=1 kW=3.29003 kvar=0.6697886084538411 Phases=2

New Load.load_p1ulv12416 conn=wye bus1=p1ulv12416.1.2 kV=0.2080002494301389 Vminpu=0.8 Vmaxpu=1.2 model=1 kW=3.36003 kvar=0.6805230909267135 Phases=2

New Load.load_p1ulv12417 conn=wye bus1=p1ulv12417.1.2 kV=0.2080002494301389 Vminpu=0.8 Vmaxpu=1.2 model=1 kW=3.42003 kvar=0.6908795546178332 Phases=2

New Load.load_p1ulv12418 conn=wye bus1=p1ulv12418.1.2 kV=0.2080002494301389 Vminpu=0.8 Vmaxpu=1.2 model=1 kW=3.61004 kvar=0.7292634355115489 Phases=2

New Load.load_p1ulv12419 conn=wye bus1=p1ulv12419.1.2 kV=0.2080002494301389 Vminpu=0.8 Vmaxpu=1.2 model=1 kW=3.60004 kvar=0.7291334744808246 Phases=2

New Load.load_p1ulv12420 conn=wye bus1=p1ulv12420.1.2 kV=0.2080002494301389 Vminpu=0.8 Vmaxpu=1.2 model=1 kW=3.35003 kvar=0.6802526048837334 Phases=2

New Load.load_p1ulv12421 conn=wye bus1=p1ulv12421.1.2 kV=0.2080002494301389 Vminpu=0.8 Vmaxpu=1.2 model=1 kW=3.33003 kvar=0.6796683639857601 Phases=2

New Load.load_p1ulv12422 conn=wye bus1=p1ulv12421.1.2 kV=0.2080002494301389 Vminpu=0.8 Vmaxpu=1.2 model=1 kW=3.56004 kvar=0.7191629458284491 Phases=2

New Load.load_p1ulv12423 conn=wye bus1=p1ulv12423.1.2 kV=0.2080002494301389 Vminpu=0.8 Vmaxpu=1.2 model=1 kW=3.11003 kvar=0.6298893844622836 Phases=2

New Load.load_p1ulv12424 conn=wye bus1=p1ulv12424.1.2 kV=0.2080002494301389 Vminpu=0.8 Vmaxpu=1.2 model=1 kW=3.61004 kvar=0.7292634355115489 Phases=2

New Load.load_p1ulv12425 conn=wye bus1=p1ulv12425.1.2 kV=0.2080002494301389 Vminpu=0.8 Vmaxpu=1.2 model=1 kW=2.84003 kvar=0.5796580042133189 Phases=2

New Load.load_p1ulv12426 conn=wye bus1=p1ulv12426.1.2 kV=0.2080002494301389 Vminpu=0.8 Vmaxpu=1.2 model=1 kW=2.73003 kvar=0.5500561486197115 Phases=2

New Load.load_p1ulv12427 conn=wye bus1=p1ulv12427.1.2 kV=0.2080002494301389 Vminpu=0.8 Vmaxpu=1.2 model=1 kW=2.50002 kvar=0.510261019669997 Phases=2

New Load.load_p1ulv12428 conn=wye bus1=p1ulv12428.1.2 kV=0.2080002494301389 Vminpu=0.8 Vmaxpu=1.2 model=1 kW=2.24002 kvar=0.45014568129695803 Phases=2

New Load.load_p1ulv12429 conn=wye bus1=p1ulv12429.1.2 kV=0.2080002494301389 Vminpu=0.8 Vmaxpu=1.2 model=1 kW=2.54003 kvar=0.5197487439894416 Phases=2

New Load.load_p1ulv12430 conn=wye bus1=p1ulv12430.1.2 kV=0.2080002494301389 Vminpu=0.8 Vmaxpu=1.2 model=1 kW=2.85003 kvar=0.5802128332421591 Phases=2

New Load.load_p1ulv12431 conn=wye bus1=p1ulv12431.1.2 kV=0.2080002494301389 Vminpu=0.8 Vmaxpu=1.2 model=1 kW=3.22003 kvar=0.6504775958854341 Phases=2

New Load.load_p1ulv12432 conn=wye bus1=p1ulv12432.1.2 kV=0.2080002494301389 Vminpu=0.8 Vmaxpu=1.2 model=1 kW=3.0700300000000005 kvar=0.620176126836135 Phases=2

New Load.load_p1ulv12433 conn=wye bus1=p1ulv12433.1.2 kV=0.2080002494301389 Vminpu=0.8 Vmaxpu=1.2 model=1 kW=2.93003 kvar=0.5995517424405946 Phases=2

New Load.load_p1ulv12434 conn=wye bus1=p1ulv12434.1.2 kV=0.2080002494301389 Vminpu=0.8 Vmaxpu=1.2 model=1 kW=2.94003 kvar=0.6000682817178988 Phases=2

New Load.load_p1ulv12435 conn=wye bus1=p1ulv12435.1.2 kV=0.2080002494301389 Vminpu=0.8 Vmaxpu=1.2 model=1 kW=3.17003 kvar=0.6403771062023346 Phases=2

New Load.load_p1ulv12436 conn=wye bus1=p1ulv12436.1.2 kV=0.2080002494301389 Vminpu=0.8 Vmaxpu=1.2 model=1 kW=3.42003 kvar=0.6908795546178332 Phases=2

New Load.load_p1ulv12437 conn=wye bus1=p1ulv12437.1.2 kV=0.2080002494301389 Vminpu=0.8 Vmaxpu=1.2 model=1 kW=3.16003 kvar=0.6400161257551694 Phases=2

New Load.load_p1ulv12438 conn=wye bus1=p1ulv12438.1.2 kV=0.2080002494301389 Vminpu=0.8 Vmaxpu=1.2 model=1 kW=3.33003 kvar=0.6796683639857601 Phases=2

New Load.load_p1ulv12439 conn=wye bus1=p1ulv12439.1.2 kV=0.2080002494301389 Vminpu=0.8 Vmaxpu=1.2 model=1 kW=3.0300300000000004 kvar=0.6200140497357622 Phases=2

New Load.load_p1ulv12440 conn=wye bus1=p1ulv12440.1.2 kV=0.2080002494301389 Vminpu=0.8 Vmaxpu=1.2 model=1 kW=3.76004 kvar=0.7595649045608481 Phases=2

New Load.load_p1ulv12441 conn=wye bus1=p1ulv12441.1.2 kV=0.2080002494301389 Vminpu=0.8 Vmaxpu=1.2 model=1 kW=3.21003 kvar=0.6501428670480555 Phases=2

New Load.load_p1ulv12442 conn=wye bus1=p1ulv12441.1.2 kV=0.2080002494301389 Vminpu=0.8 Vmaxpu=1.2 model=1 kW=3.0300300000000004 kvar=0.6200140497357622 Phases=2

New Load.load_p1ulv12443 conn=wye bus1=p1ulv12443.1.2 kV=0.2080002494301389 Vminpu=0.8 Vmaxpu=1.2 model=1 kW=5.86006 kvar=1.1899359348349032 Phases=2

New Load.load_p1ulv12444 conn=wye bus1=p1ulv12443.1.2 kV=0.2080002494301389 Vminpu=0.8 Vmaxpu=1.2 model=1 kW=3.13003 kvar=0.6404763570309296 Phases=2

New Load.load_p1ulv12445 conn=wye bus1=p1ulv12445.1.2 kV=0.2080002494301389 Vminpu=0.8 Vmaxpu=1.2 model=1 kW=3.34003 kvar=0.679967673818805 Phases=2

New Load.load_p1ulv12446 conn=wye bus1=p1ulv12446.1.2 kV=0.2080002494301389 Vminpu=0.8 Vmaxpu=1.2 model=1 kW=3.08003 kvar=0.6302452033833459 Phases=2

New Load.load_p1ulv12447 conn=wye bus1=p1ulv12447.1.2 kV=0.2080002494301389 Vminpu=0.8 Vmaxpu=1.2 model=1 kW=3.20003 kvar=0.6497938057886328 Phases=2

New Load.load_p1ulv12448 conn=wye bus1=p1ulv12448.1.2 kV=0.2080002494301389 Vminpu=0.8 Vmaxpu=1.2 model=1 kW=3.41003 kvar=0.6906498322195993 Phases=2

New Load.load_p1ulv12449 conn=wye bus1=p1ulv12449.1.2 kV=0.2080002494301389 Vminpu=0.8 Vmaxpu=1.2 model=1 kW=2.72003 kvar=0.5494726990544365 Phases=2

New Load.load_p1ulv12450 conn=wye bus1=p1ulv12450.1.2 kV=0.2080002494301389 Vminpu=0.8 Vmaxpu=1.2 model=1 kW=3.11003 kvar=0.6298893844622836 Phases=2

New Load.load_p1ulv12451 conn=wye bus1=p1ulv12450.1.2 kV=0.2080002494301389 Vminpu=0.8 Vmaxpu=1.2 model=1 kW=2.7800300000000004 kvar=0.5601303263507202 Phases=2

New Load.load_p1ulv12452 conn=wye bus1=p1ulv12452.1.2 kV=0.2080002494301389 Vminpu=0.8 Vmaxpu=1.2 model=1 kW=5.00005 kvar=1.010059068799659 Phases=2

New Load.load_p1ulv12453 conn=wye bus1=p1ulv12453.1.2 kV=0.2080002494301389 Vminpu=0.8 Vmaxpu=1.2 model=1 kW=2.92003 kvar=0.5898746577868357 Phases=2

New Load.load_p1ulv12454 conn=wye bus1=p1ulv12454.1.2 kV=0.2080002494301389 Vminpu=0.8 Vmaxpu=1.2 model=1 kW=2.97003 kvar=0.5999751474699353 Phases=2

New Load.load_p1ulv12455 conn=wye bus1=p1ulv12455.1.2 kV=0.2080002494301389 Vminpu=0.8 Vmaxpu=1.2 model=1 kW=3.33003 kvar=0.6796683639857601 Phases=2

New Load.load_p1ulv12456 conn=wye bus1=p1ulv12456.1.2 kV=0.2080002494301389 Vminpu=0.8 Vmaxpu=1.2 model=1 kW=2.74003 kvar=0.5606733585797765 Phases=2

New Load.load_p1ulv12457 conn=wye bus1=p1ulv12457.1.2 kV=0.2080002494301389 Vminpu=0.8 Vmaxpu=1.2 model=1 kW=2.83003 kvar=0.5702045040817287 Phases=2

New Load.load_p1ulv12458 conn=wye bus1=p1ulv12458.1.2 kV=0.2080002494301389 Vminpu=0.8 Vmaxpu=1.2 model=1 kW=2.99003 kvar=0.6102734204701886 Phases=2

New Load.load_p1ulv12459 conn=wye bus1=p1ulv12459.1.2 kV=0.2080002494301389 Vminpu=0.8 Vmaxpu=1.2 model=1 kW=2.73003 kvar=0.5500561486197115 Phases=2

New Load.load_p1ulv12460 conn=wye bus1=p1ulv12460.1.2 kV=0.2080002494301389 Vminpu=0.8 Vmaxpu=1.2 model=1 kW=2.96003 kvar=0.5995091605836256 Phases=2

New Load.load_p1ulv12461 conn=wye bus1=p1ulv12461.1.2 kV=0.2080002494301389 Vminpu=0.8 Vmaxpu=1.2 model=1 kW=2.70003 kvar=0.5496756371472675 Phases=2

New Load.load_p1ulv12462 conn=wye bus1=p1ulv12462.1.2 kV=0.2080002494301389 Vminpu=0.8 Vmaxpu=1.2 model=1 kW=2.05002 kvar=0.4194813920123917 Phases=2

New Load.load_p1ulv12463 conn=wye bus1=p1ulv12463.1.2 kV=0.2080002494301389 Vminpu=0.8 Vmaxpu=1.2 model=1 kW=2.81003 kvar=0.570600928141371 Phases=2

New Load.load_p1ulv12464 conn=wye bus1=p1ulv12464.1.2 kV=0.2080002494301389 Vminpu=0.8 Vmaxpu=1.2 model=1 kW=2.99003 kvar=0.6102734204701886 Phases=2

New Load.load_p1ulv12465 conn=wye bus1=p1ulv12465.1.2 kV=0.2080002494301389 Vminpu=0.8 Vmaxpu=1.2 model=1 kW=1.9900200000000001 kvar=0.4102964266439281 Phases=2

New Load.load_p1ulv12466 conn=wye bus1=p1ulv12466.1.2 kV=0.2080002494301389 Vminpu=0.8 Vmaxpu=1.2 model=1 kW=2.93003 kvar=0.5903528595437461 Phases=2

New Load.load_p1ulv12467 conn=wye bus1=p1ulv12467.1.2 kV=0.2080002494301389 Vminpu=0.8 Vmaxpu=1.2 model=1 kW=3.40003 kvar=0.6904055379154336 Phases=2

New Load.load_p1ulv12468 conn=wye bus1=p1ulv12467.1.2 kV=0.2080002494301389 Vminpu=0.8 Vmaxpu=1.2 model=1 kW=3.27003 kvar=0.660578085568534 Phases=2

New Load.load_p1ulv12469 conn=wye bus1=p1ulv12469.1.2 kV=0.2080002494301389 Vminpu=0.8 Vmaxpu=1.2 model=1 kW=3.11003 kvar=0.6298893844622836 Phases=2

New Load.load_p1ulv12470 conn=wye bus1=p1ulv12470.1.2 kV=0.2080002494301389 Vminpu=0.8 Vmaxpu=1.2 model=1 kW=2.96003 kvar=0.5995091605836256 Phases=2

New Load.load_p1ulv12471 conn=wye bus1=p1ulv12471.1.2 kV=0.2080002494301389 Vminpu=0.8 Vmaxpu=1.2 model=1 kW=3.33003 kvar=0.6796683639857601 Phases=2

New Load.load_p1ulv12472 conn=wye bus1=p1ulv12472.1.2 kV=0.2080002494301389 Vminpu=0.8 Vmaxpu=1.2 model=1 kW=2.99003 kvar=0.6102734204701886 Phases=2

New Load.load_p1ulv12473 conn=wye bus1=p1ulv12473.1.2 kV=0.2080002494301389 Vminpu=0.8 Vmaxpu=1.2 model=1 kW=3.12003 kvar=0.6302766165192346 Phases=2

New Load.load_p1ulv12474 conn=wye bus1=p1ulv12474.1.2 kV=0.2080002494301389 Vminpu=0.8 Vmaxpu=1.2 model=1 kW=3.29003 kvar=0.6697886084538411 Phases=2

New Load.load_p1ulv12475 conn=wye bus1=p1ulv12475.1.2 kV=0.2080002494301389 Vminpu=0.8 Vmaxpu=1.2 model=1 kW=4.15004 kvar=0.8405276287025704 Phases=2

New Load.load_p1ulv12476 conn=wye bus1=p1ulv12476.1.2 kV=0.2080002494301389 Vminpu=0.8 Vmaxpu=1.2 model=1 kW=3.89004 kvar=0.789906312212702 Phases=2

New Load.load_p1ulv12477 conn=wye bus1=p1ulv12477.1.2 kV=0.2080002494301389 Vminpu=0.8 Vmaxpu=1.2 model=1 kW=3.91004 kvar=0.7898663736101474 Phases=2

New Load.load_p1ulv12922 conn=wye bus1=p1ulv12922.1.2.3 kV=0.48 Vminpu=0.8 Vmaxpu=1.2 model=1 kW=29.950299999999995 kvar=6.081667803586619 Phases=3

New Load.load_p1ulv12924 conn=wye bus1=p1ulv12924.1.2 kV=0.2080002494301389 Vminpu=0.8 Vmaxpu=1.2 model=1 kW=3.80004 kvar=0.7696404396523686 Phases=2

New Load.load_p1ulv12925 conn=wye bus1=p1ulv12925.1.2 kV=0.2080002494301389 Vminpu=0.8 Vmaxpu=1.2 model=1 kW=4.35004 kvar=0.8810345938741143 Phases=2

New Load.load_p1ulv12932 conn=wye bus1=p1ulv12932.1.2 kV=0.2080002494301389 Vminpu=0.8 Vmaxpu=1.2 model=1 kW=3.83004 kvar=0.7797245502085238 Phases=2

New Load.load_p1ulv12944 conn=wye bus1=p1ulv12944.1.2 kV=0.2080002494301389 Vminpu=0.8 Vmaxpu=1.2 model=1 kW=4.50005 kvar=0.9090541719686612 Phases=2

New Load.load_p1ulv12964 conn=wye bus1=p1ulv12964.1.2 kV=0.2080002494301389 Vminpu=0.8 Vmaxpu=1.2 model=1 kW=5.11005 kvar=1.0403106593646716 Phases=2

New Load.load_p1ulv12969 conn=wye bus1=p1ulv12969.1.2 kV=0.2080002494301389 Vminpu=0.8 Vmaxpu=1.2 model=1 kW=4.19004 kvar=0.8508239104029033 Phases=2

New Load.load_p1ulv12982 conn=wye bus1=p1ulv12982.1.2 kV=0.2080002494301389 Vminpu=0.8 Vmaxpu=1.2 model=1 kW=2.92003 kvar=0.5898746577868357 Phases=2

New Load.load_p1ulv13010 conn=wye bus1=p1ulv13010.1.2 kV=0.2080002494301389 Vminpu=0.8 Vmaxpu=1.2 model=1 kW=3.85004 kvar=0.7797671809452545 Phases=2

New Load.load_p1ulv13012 conn=wye bus1=p1ulv13012.1.2 kV=0.2080002494301389 Vminpu=0.8 Vmaxpu=1.2 model=1 kW=5.63006 kvar=1.1402832216685126 Phases=2

New Load.load_p1ulv13051 conn=wye bus1=p1ulv13051.1.2 kV=0.2080002494301389 Vminpu=0.8 Vmaxpu=1.2 model=1 kW=5.340050000000001 kvar=1.078742398644737 Phases=2

New Load.load_p1ulv13053 conn=wye bus1=p1ulv13053.1.2 kV=0.2080002494301389 Vminpu=0.8 Vmaxpu=1.2 model=1 kW=18.7002 kvar=3.7972375655880066 Phases=2

New Load.load_p1ulv13057 conn=wye bus1=p1ulv13057.1.2 kV=0.2080002494301389 Vminpu=0.8 Vmaxpu=1.2 model=1 kW=3.53004 kvar=0.7204909600226704 Phases=2

New Load.load_p1ulv13097 conn=wye bus1=p1ulv13097.1.2 kV=0.2080002494301389 Vminpu=0.8 Vmaxpu=1.2 model=1 kW=2.96003 kvar=0.5995091605836256 Phases=2

New Load.load_p1ulv13100 conn=wye bus1=p1ulv13100.1.2 kV=0.2080002494301389 Vminpu=0.8 Vmaxpu=1.2 model=1 kW=4.39004 kvar=0.8891359869084231 Phases=2

New Load.load_p1ulv13103 conn=wye bus1=p1ulv13103.1.2 kV=0.2080002494301389 Vminpu=0.8 Vmaxpu=1.2 model=1 kW=4.09004 kvar=0.8305180443395029 Phases=2

New Load.load_p1ulv13126 conn=wye bus1=p1ulv13126.1.2 kV=0.2080002494301389 Vminpu=0.8 Vmaxpu=1.2 model=1 kW=4.27004 kvar=0.869300325420206 Phases=2

New Load.load_p1ulv13127 conn=wye bus1=p1ulv13127.1.2 kV=0.2080002494301389 Vminpu=0.8 Vmaxpu=1.2 model=1 kW=6.05006 kvar=1.2285170803553642 Phases=2

New Load.load_p1ulv13147 conn=wye bus1=p1ulv13147.1.2 kV=0.2080002494301389 Vminpu=0.8 Vmaxpu=1.2 model=1 kW=4.57005 kvar=0.9303767534230621 Phases=2

New Load.load_p1ulv13170 conn=wye bus1=p1ulv13170.1.2 kV=0.2080002494301389 Vminpu=0.8 Vmaxpu=1.2 model=1 kW=5.28005 kvar=1.069394007270052 Phases=2

New Load.load_p1ulv13173 conn=wye bus1=p1ulv13173.1.2 kV=0.2080002494301389 Vminpu=0.8 Vmaxpu=1.2 model=1 kW=15.9602 kvar=3.240856835450835 Phases=2

New Load.load_p1ulv13174 conn=wye bus1=p1ulv13174.1.2 kV=0.2080002494301389 Vminpu=0.8 Vmaxpu=1.2 model=1 kW=3.77004 kvar=0.7596010602602379 Phases=2

New Load.load_p1ulv13176 conn=wye bus1=p1ulv13176.1.2 kV=0.2080002494301389 Vminpu=0.8 Vmaxpu=1.2 model=1 kW=4.54005 kvar=0.9195182361353397 Phases=2

New Load.load_p1ulv13217 conn=wye bus1=p1ulv13217.1.2 kV=0.2080002494301389 Vminpu=0.8 Vmaxpu=1.2 model=1 kW=4.48004 kvar=0.9097109219867646 Phases=2

New Load.load_p1ulv13220 conn=wye bus1=p1ulv13220.1.2 kV=0.2080002494301389 Vminpu=0.8 Vmaxpu=1.2 model=1 kW=5.71006 kvar=1.1594771357398026 Phases=2

New Load.load_p1ulv13223 conn=wye bus1=p1ulv13223.1.2 kV=0.2080002494301389 Vminpu=0.8 Vmaxpu=1.2 model=1 kW=5.01005 kvar=1.019952528634744 Phases=2

New Load.load_p1ulv13257 conn=wye bus1=p1ulv13257.1.2 kV=0.2080002494301389 Vminpu=0.8 Vmaxpu=1.2 model=1 kW=4.42004 kvar=0.8998375215150975 Phases=2

New Load.load_p1ulv13263 conn=wye bus1=p1ulv13263.1.2 kV=0.2080002494301389 Vminpu=0.8 Vmaxpu=1.2 model=1 kW=5.48005 kvar=1.109900972441596 Phases=2

New Load.load_p1ulv13266 conn=wye bus1=p1ulv13266.1.2 kV=0.2080002494301389 Vminpu=0.8 Vmaxpu=1.2 model=1 kW=5.090050000000001 kvar=1.0309123903570856 Phases=2

New Load.load_p1ulv13273 conn=wye bus1=p1ulv13273.1.2.3 kV=0.48 Vminpu=0.8 Vmaxpu=1.2 model=1 kW=119.611 kvar=24.28804945709389 Phases=3

New Load.load_p1ulv13301 conn=wye bus1=p1ulv13301.1.2 kV=0.2080002494301389 Vminpu=0.8 Vmaxpu=1.2 model=1 kW=2.1200200000000002 kvar=0.4304884217173018 Phases=2

New Load.load_p1ulv13303 conn=wye bus1=p1ulv13303.1.2 kV=0.2080002494301389 Vminpu=0.8 Vmaxpu=1.2 model=1 kW=5.98006 kvar=1.2111704107187142 Phases=2

New Load.load_p1ulv13313 conn=wye bus1=p1ulv13313.1.2 kV=0.2080002494301389 Vminpu=0.8 Vmaxpu=1.2 model=1 kW=4.93005 kvar=1.0010893498586726 Phases=2

New Load.load_p1ulv13349 conn=wye bus1=p1ulv13349.1.2 kV=0.2080002494301389 Vminpu=0.8 Vmaxpu=1.2 model=1 kW=6.26006 kvar=1.2711593990885048 Phases=2

New Load.load_p1ulv13353 conn=wye bus1=p1ulv13353.1.2 kV=0.2080002494301389 Vminpu=0.8 Vmaxpu=1.2 model=1 kW=3.81004 kvar=0.769665394243948 Phases=2

New Load.load_p1ulv13364 conn=wye bus1=p1ulv13364.1.2 kV=0.2080002494301389 Vminpu=0.8 Vmaxpu=1.2 model=1 kW=9.8901 kvar=2.008270459536366 Phases=2

New Load.load_p1ulv13394 conn=wye bus1=p1ulv13394.1.2 kV=0.2080002494301389 Vminpu=0.8 Vmaxpu=1.2 model=1 kW=4.25004 kvar=0.8607811112883423 Phases=2

New Load.load_p1ulv13396 conn=wye bus1=p1ulv13396.1.2 kV=0.2080002494301389 Vminpu=0.8 Vmaxpu=1.2 model=1 kW=6.15006 kvar=1.2488229464187643 Phases=2

New Load.load_p1ulv13440 conn=wye bus1=p1ulv13440.1.2 kV=0.2080002494301389 Vminpu=0.8 Vmaxpu=1.2 model=1 kW=1.78002 kvar=0.35958147291422454 Phases=2

New Load.load_p1ulv13441 conn=wye bus1=p1ulv13441.1.2 kV=0.2080002494301389 Vminpu=0.8 Vmaxpu=1.2 model=1 kW=3.62004 kvar=0.7407437090079797 Phases=2

New Load.load_p1ulv13443 conn=wye bus1=p1ulv13443.1.2 kV=0.2080002494301389 Vminpu=0.8 Vmaxpu=1.2 model=1 kW=4.41004 kvar=0.900101402062973 Phases=2

New Load.load_p1ulv13446 conn=wye bus1=p1ulv13446.1.2.3 kV=0.48 Vminpu=0.8 Vmaxpu=1.2 model=1 kW=34.0603 kvar=6.916238898792376 Phases=3

New Load.load_p1ulv13456 conn=wye bus1=p1ulv13456.1.2 kV=0.2080002494301389 Vminpu=0.8 Vmaxpu=1.2 model=1 kW=4.64005 kvar=0.9397717187211114 Phases=2

New Load.load_p1ulv13481 conn=wye bus1=p1ulv13481.1.2 kV=0.2080002494301389 Vminpu=0.8 Vmaxpu=1.2 model=1 kW=5.14005 kvar=1.0410391316499712 Phases=2

New Load.load_p1ulv13484 conn=wye bus1=p1ulv13484.1.2 kV=0.2080002494301389 Vminpu=0.8 Vmaxpu=1.2 model=1 kW=4.61005 kvar=0.9409239980998833 Phases=2

New Load.load_p1ulv13489 conn=wye bus1=p1ulv13489.1.2 kV=0.2080002494301389 Vminpu=0.8 Vmaxpu=1.2 model=1 kW=4.07004 kvar=0.8307064585474014 Phases=2

New Load.load_p1ulv13550 conn=wye bus1=p1ulv13550.1.2 kV=0.2080002494301389 Vminpu=0.8 Vmaxpu=1.2 model=1 kW=6.950070000000001 kvar=1.4112719055125744 Phases=2

New Load.load_p1ulv13554 conn=wye bus1=p1ulv13554.1.2 kV=0.2080002494301389 Vminpu=0.8 Vmaxpu=1.2 model=1 kW=3.93004 kvar=0.8000826809384517 Phases=2

New Load.load_p1ulv13557 conn=wye bus1=p1ulv13557.1.2 kV=0.2080002494301389 Vminpu=0.8 Vmaxpu=1.2 model=1 kW=3.58004 kvar=0.7306960987749602 Phases=2

New Load.load_p1ulv13567 conn=wye bus1=p1ulv13567.1.2 kV=0.2080002494301389 Vminpu=0.8 Vmaxpu=1.2 model=1 kW=3.91004 kvar=0.7898663736101474 Phases=2

New Load.load_p1ulv13598 conn=wye bus1=p1ulv13598.1.2 kV=0.2080002494301389 Vminpu=0.8 Vmaxpu=1.2 model=1 kW=6.01006 kvar=1.2203947339300039 Phases=2

New Load.load_p1ulv13601 conn=wye bus1=p1ulv13601.1.2 kV=0.2080002494301389 Vminpu=0.8 Vmaxpu=1.2 model=1 kW=5.29005 kvar=1.0686419089616372 Phases=2

New Load.load_p1ulv13604 conn=wye bus1=p1ulv13604.1.2 kV=0.2080002494301389 Vminpu=0.8 Vmaxpu=1.2 model=1 kW=5.090050000000001 kvar=1.0309123903570856 Phases=2

New Load.load_p1ulv13606 conn=wye bus1=p1ulv13606.1.2 kV=0.2080002494301389 Vminpu=0.8 Vmaxpu=1.2 model=1 kW=5.90006 kvar=1.2011419279441737 Phases=2

New Load.load_p1ulv13608 conn=wye bus1=p1ulv13608.1.2.3 kV=0.48 Vminpu=0.8 Vmaxpu=1.2 model=1 kW=23.4202 kvar=4.755674443780507 Phases=3

New Load.load_p1ulv13617 conn=wye bus1=p1ulv13617.1.2 kV=0.2080002494301389 Vminpu=0.8 Vmaxpu=1.2 model=1 kW=4.79005 kvar=0.9701519425997696 Phases=2

New Load.load_p1ulv13647 conn=wye bus1=p1ulv13647.1.2 kV=0.2080002494301389 Vminpu=0.8 Vmaxpu=1.2 model=1 kW=1.48001 kvar=0.2997535676176835 Phases=2

New Load.load_p1ulv13652 conn=wye bus1=p1ulv13652.1.2 kV=0.2080002494301389 Vminpu=0.8 Vmaxpu=1.2 model=1 kW=5.20005 kvar=1.061344635376904 Phases=2

New Load.load_p1ulv13692 conn=wye bus1=p1ulv13692.1.2 kV=0.2080002494301389 Vminpu=0.8 Vmaxpu=1.2 model=1 kW=5.37005 kvar=1.0904351605376348 Phases=2

New Load.load_p1ulv13695 conn=wye bus1=p1ulv13695.1.2 kV=0.2080002494301389 Vminpu=0.8 Vmaxpu=1.2 model=1 kW=19.4902 kvar=3.957653907488871 Phases=2

New Load.load_p1ulv13698 conn=wye bus1=p1ulv13698.1.2 kV=0.2080002494301389 Vminpu=0.8 Vmaxpu=1.2 model=1 kW=4.2400400000000005 kvar=0.8609768434346036 Phases=2

New Load.load_p1ulv13738 conn=wye bus1=p1ulv13738.1.2 kV=0.2080002494301389 Vminpu=0.8 Vmaxpu=1.2 model=1 kW=3.16003 kvar=0.6400161257551694 Phases=2

New Load.load_p1ulv13740 conn=wye bus1=p1ulv13740.1.2 kV=0.2080002494301389 Vminpu=0.8 Vmaxpu=1.2 model=1 kW=4.52005 kvar=0.9201976880580982 Phases=2

New Load.load_p1ulv13748 conn=wye bus1=p1ulv13748.1.2 kV=0.2080002494301389 Vminpu=0.8 Vmaxpu=1.2 model=1 kW=4.01004 kvar=0.810067352976347 Phases=2

New Load.load_p1ulv13770 conn=wye bus1=p1ulv13770.1.2 kV=0.2080002494301389 Vminpu=0.8 Vmaxpu=1.2 model=1 kW=4.27004 kvar=0.869300325420206 Phases=2

New Load.load_p1ulv13772 conn=wye bus1=p1ulv13772.1.2 kV=0.2080002494301389 Vminpu=0.8 Vmaxpu=1.2 model=1 kW=3.92004 kvar=0.8000910422905317 Phases=2

New Load.load_p1ulv13813 conn=wye bus1=p1ulv13813.1.2 kV=0.2080002494301389 Vminpu=0.8 Vmaxpu=1.2 model=1 kW=5.43005 kvar=1.0997742311487098 Phases=2

New Load.load_p1ulv13816 conn=wye bus1=p1ulv13816.1.2 kV=0.2080002494301389 Vminpu=0.8 Vmaxpu=1.2 model=1 kW=19.3502 kvar=3.9292256950001097 Phases=2

New Load.load_p1ulv13819 conn=wye bus1=p1ulv13819.1.2 kV=0.2080002494301389 Vminpu=0.8 Vmaxpu=1.2 model=1 kW=3.74004 kvar=0.7594475131176014 Phases=2

New Load.load_p1ulv13860 conn=wye bus1=p1ulv13860.1.2 kV=0.2080002494301389 Vminpu=0.8 Vmaxpu=1.2 model=1 kW=4.4900400000000005 kvar=0.9093894694941951 Phases=2

New Load.load_p1ulv13863 conn=wye bus1=p1ulv13863.1.2 kV=0.2080002494301389 Vminpu=0.8 Vmaxpu=1.2 model=1 kW=4.77005 kvar=0.9710930148829175 Phases=2

New Load.load_p1ulv13865 conn=wye bus1=p1ulv13865.1.2 kV=0.2080002494301389 Vminpu=0.8 Vmaxpu=1.2 model=1 kW=4.04004 kvar=0.8203651113078028 Phases=2

New Load.load_p1ulv13874 conn=wye bus1=p1ulv13874.1.2 kV=0.2080002494301389 Vminpu=0.8 Vmaxpu=1.2 model=1 kW=4.48004 kvar=0.9097109219867646 Phases=2

New Load.load_p1ulv13905 conn=wye bus1=p1ulv13905.1.2 kV=0.2080002494301389 Vminpu=0.8 Vmaxpu=1.2 model=1 kW=5.23005 kvar=1.059267265977166 Phases=2

New Load.load_p1ulv13912 conn=wye bus1=p1ulv13912.1.2 kV=0.2080002494301389 Vminpu=0.8 Vmaxpu=1.2 model=1 kW=1.38001 kvar=0.28022298226153225 Phases=2

New Load.load_p1ulv13915 conn=wye bus1=p1ulv13915.1.2 kV=0.2080002494301389 Vminpu=0.8 Vmaxpu=1.2 model=1 kW=10.1401 kvar=2.059035124694867 Phases=2

New Load.load_p1ulv13923 conn=wye bus1=p1ulv13923.1.2 kV=0.2080002494301389 Vminpu=0.8 Vmaxpu=1.2 model=1 kW=4.14004 kvar=1.3592956687066866 Phases=2

New Load.load_p1ulv13962 conn=wye bus1=p1ulv13962.1.2 kV=0.2080002494301389 Vminpu=0.8 Vmaxpu=1.2 model=1 kW=4.34004 kvar=0.8790092456155372 Phases=2

New Load.load_p1ulv13975 conn=wye bus1=p1ulv13975.1.2 kV=0.2080002494301389 Vminpu=0.8 Vmaxpu=1.2 model=1 kW=3.63004 kvar=0.7409012375272501 Phases=2

New Load.load_p1ulv14005 conn=wye bus1=p1ulv14005.1.2 kV=0.2080002494301389 Vminpu=0.8 Vmaxpu=1.2 model=1 kW=4.10004 kvar=0.8304008874096844 Phases=2

New Load.load_p1ulv14008 conn=wye bus1=p1ulv14008.1.2.3 kV=0.48 Vminpu=0.8 Vmaxpu=1.2 model=1 kW=35.03039999999999 kvar=7.113226105473423 Phases=3

New Load.load_p1ulv14011 conn=wye bus1=p1ulv14011.1.2 kV=0.2080002494301389 Vminpu=0.8 Vmaxpu=1.2 model=1 kW=4.52005 kvar=0.9201976880580982 Phases=2

New Load.load_p1ulv14014 conn=wye bus1=p1ulv14014.1.2 kV=0.2080002494301389 Vminpu=0.8 Vmaxpu=1.2 model=1 kW=3.51004 kvar=0.7109053401536299 Phases=2

New Load.load_p1ulv14017 conn=wye bus1=p1ulv14017.1.2 kV=0.2080002494301389 Vminpu=0.8 Vmaxpu=1.2 model=1 kW=9.6001 kvar=1.9493834479525043 Phases=2

New Load.load_p1ulv14026 conn=wye bus1=p1ulv14026.1.2 kV=0.2080002494301389 Vminpu=0.8 Vmaxpu=1.2 model=1 kW=8.72009 kvar=2.869248162633159 Phases=2

New Load.load_p1ulv14055 conn=wye bus1=p1ulv14055.1.2 kV=0.2080002494301389 Vminpu=0.8 Vmaxpu=1.2 model=1 kW=4.69005 kvar=0.9498984600139976 Phases=2

New Load.load_p1ulv14058 conn=wye bus1=p1ulv14058.1.2 kV=0.2080002494301389 Vminpu=0.8 Vmaxpu=1.2 model=1 kW=4.83005 kvar=0.9807834837952725 Phases=2

New Load.load_p1ulv14095 conn=wye bus1=p1ulv14095.1.2 kV=0.2080002494301389 Vminpu=0.8 Vmaxpu=1.2 model=1 kW=8.620090000000001 kvar=1.750383929944574 Phases=2

New Load.load_p1ulv14098 conn=wye bus1=p1ulv14098.1.2 kV=0.2080002494301389 Vminpu=0.8 Vmaxpu=1.2 model=1 kW=17.3502 kvar=3.5231083737321014 Phases=2

New Load.load_p1ulv14100 conn=wye bus1=p1ulv14100.1.2 kV=0.2080002494301389 Vminpu=0.8 Vmaxpu=1.2 model=1 kW=3.7500400000000003 kvar=0.7595136983594827 Phases=2

New Load.load_p1ulv14103 conn=wye bus1=p1ulv14103.1.2 kV=0.2080002494301389 Vminpu=0.8 Vmaxpu=1.2 model=1 kW=3.7500400000000003 kvar=0.7595136983594827 Phases=2

New Load.load_p1ulv14137 conn=wye bus1=p1ulv14137.1.2 kV=0.2080002494301389 Vminpu=0.8 Vmaxpu=1.2 model=1 kW=4.670050000000001 kvar=0.9507348841529898 Phases=2

New Load.load_p1ulv14142 conn=wye bus1=p1ulv14142.1.2 kV=0.2080002494301389 Vminpu=0.8 Vmaxpu=1.2 model=1 kW=4.70005 kvar=0.9494561307010603 Phases=2

New Load.load_p1ulv14145 conn=wye bus1=p1ulv14145.1.2 kV=0.2080002494301389 Vminpu=0.8 Vmaxpu=1.2 model=1 kW=6.01006 kvar=1.2203947339300039 Phases=2

New Load.load_p1ulv14157 conn=wye bus1=p1ulv14157.1.2 kV=0.2080002494301389 Vminpu=0.8 Vmaxpu=1.2 model=1 kW=4.61005 kvar=0.9409239980998833 Phases=2

New Load.load_p1ulv14311 conn=wye bus1=p1ulv14311.1.2 kV=0.2080002494301389 Vminpu=0.8 Vmaxpu=1.2 model=1 kW=3.76004 kvar=0.7595649045608481 Phases=2

New Load.load_p1ulv14312 conn=wye bus1=p1ulv14312.1.2 kV=0.2080002494301389 Vminpu=0.8 Vmaxpu=1.2 model=1 kW=3.9600400000000002 kvar=0.7999668632932473 Phases=2

New Load.load_p1ulv14313 conn=wye bus1=p1ulv14313.1.2 kV=0.2080002494301389 Vminpu=0.8 Vmaxpu=1.2 model=1 kW=3.04003 kvar=0.6204785592224786 Phases=2

New Load.load_p1ulv14314 conn=wye bus1=p1ulv14314.1.2 kV=0.2080002494301389 Vminpu=0.8 Vmaxpu=1.2 model=1 kW=3.19003 kvar=0.6494304777239135 Phases=2

New Load.load_p1ulv14370 conn=wye bus1=p1ulv14370.1.2 kV=0.2080002494301389 Vminpu=0.8 Vmaxpu=1.2 model=1 kW=3.10003 kvar=0.6294879397252322 Phases=2

New Load.load_p1ulv14371 conn=wye bus1=p1ulv14371.1.2 kV=0.2080002494301389 Vminpu=0.8 Vmaxpu=1.2 model=1 kW=3.21003 kvar=0.6501428670480555 Phases=2

New Load.load_p1ulv14372 conn=wye bus1=p1ulv14372.1.2 kV=0.2080002494301389 Vminpu=0.8 Vmaxpu=1.2 model=1 kW=3.19003 kvar=0.6494304777239135 Phases=2

New Load.load_p1ulv14373 conn=wye bus1=p1ulv14373.1.2 kV=0.2080002494301389 Vminpu=0.8 Vmaxpu=1.2 model=1 kW=3.29003 kvar=0.6697886084538411 Phases=2

New Load.load_p1ulv14374 conn=wye bus1=p1ulv14374.1.2 kV=0.2080002494301389 Vminpu=0.8 Vmaxpu=1.2 model=1 kW=3.24003 kvar=0.6596095430888772 Phases=2

New Load.load_p1ulv14375 conn=wye bus1=p1ulv14375.1.2 kV=0.2080002494301389 Vminpu=0.8 Vmaxpu=1.2 model=1 kW=3.21003 kvar=0.6501428670480555 Phases=2

New Load.load_p1ulv14376 conn=wye bus1=p1ulv14376.1.2 kV=0.2080002494301389 Vminpu=0.8 Vmaxpu=1.2 model=1 kW=3.09003 kvar=0.6306836979747686 Phases=2

New Load.load_p1ulv14377 conn=wye bus1=p1ulv14377.1.2 kV=0.2080002494301389 Vminpu=0.8 Vmaxpu=1.2 model=1 kW=3.00003 kvar=0.6107500293370508 Phases=2

New Load.load_p1ulv14642 conn=wye bus1=p1ulv14642.1.2 kV=0.2080002494301389 Vminpu=0.8 Vmaxpu=1.2 model=1 kW=5.99006 kvar=1.2194642456011087 Phases=2

New Load.load_p1ulv14645 conn=wye bus1=p1ulv14645.1.2 kV=0.2080002494301389 Vminpu=0.8 Vmaxpu=1.2 model=1 kW=18.2802 kvar=3.7119529281217254 Phases=2

New Load.load_p1ulv14650 conn=wye bus1=p1ulv14650.1.2 kV=0.2080002494301389 Vminpu=0.8 Vmaxpu=1.2 model=1 kW=3.68004 kvar=0.7491873541136322 Phases=2

New Load.load_p1ulv14684 conn=wye bus1=p1ulv14684.1.2 kV=0.2080002494301389 Vminpu=0.8 Vmaxpu=1.2 model=1 kW=3.97004 kvar=0.8102961810428216 Phases=2

New Load.load_p1ulv14686 conn=wye bus1=p1ulv14686.1.2 kV=0.2080002494301389 Vminpu=0.8 Vmaxpu=1.2 model=1 kW=4.86005 kvar=0.9894153325398525 Phases=2

New Load.load_p1ulv14688 conn=wye bus1=p1ulv14688.1.2 kV=0.2080002494301389 Vminpu=0.8 Vmaxpu=1.2 model=1 kW=7.42007 kvar=1.510587550852148 Phases=2

New Load.load_p1ulv14691 conn=wye bus1=p1ulv14691.1.2 kV=0.2080002494301389 Vminpu=0.8 Vmaxpu=1.2 model=1 kW=3.9400400000000007 kvar=0.8000592452444024 Phases=2

New Load.load_p1ulv14703 conn=wye bus1=p1ulv14703.1.2 kV=0.2080002494301389 Vminpu=0.8 Vmaxpu=1.2 model=1 kW=4.38004 kvar=0.8894050559233643 Phases=2

New Load.load_p1ulv14710 conn=wye bus1=p1ulv14710.1.2 kV=0.2080002494301389 Vminpu=0.8 Vmaxpu=1.2 model=1 kW=4.880050000000001 kvar=0.9909364168269728 Phases=2

New Load.load_p1ulv14734 conn=wye bus1=p1ulv14734.1.2 kV=0.2080002494301389 Vminpu=0.8 Vmaxpu=1.2 model=1 kW=4.51005 kvar=0.9205137205953031 Phases=2

New Load.load_p1ulv14737 conn=wye bus1=p1ulv14737.1.2 kV=0.2080002494301389 Vminpu=0.8 Vmaxpu=1.2 model=1 kW=4.94005 kvar=1.0005321664784275 Phases=2

New Load.load_p1ulv14745 conn=wye bus1=p1ulv14745.1.2.3 kV=0.48 Vminpu=0.8 Vmaxpu=1.2 model=1 kW=29.650300000000005 kvar=6.020750205396419 Phases=3

New Load.load_p1ulv14772 conn=wye bus1=p1ulv14772.1.2 kV=0.2080002494301389 Vminpu=0.8 Vmaxpu=1.2 model=1 kW=4.69005 kvar=0.9498984600139976 Phases=2

New Load.load_p1ulv14774 conn=wye bus1=p1ulv14774.1.2 kV=0.2080002494301389 Vminpu=0.8 Vmaxpu=1.2 model=1 kW=4.96005 kvar=1.0097734632697801 Phases=2

New Load.load_p1ulv14799 conn=wye bus1=p1ulv14799.1.2 kV=0.2080002494301389 Vminpu=0.8 Vmaxpu=1.2 model=1 kW=4.87005 kvar=0.9889058302206326 Phases=2

New Load.load_p1ulv14832 conn=wye bus1=p1ulv14832.1.2 kV=0.2080002494301389 Vminpu=0.8 Vmaxpu=1.2 model=1 kW=4.79005 kvar=0.9701519425997696 Phases=2

New Load.load_p1ulv14835 conn=wye bus1=p1ulv14835.1.2 kV=0.2080002494301389 Vminpu=0.8 Vmaxpu=1.2 model=1 kW=2.8200300000000005 kvar=0.5696736784206362 Phases=2

New Load.load_p1ulv14845 conn=wye bus1=p1ulv14845.1.2.3 kV=0.48 Vminpu=0.8 Vmaxpu=1.2 model=1 kW=106.70100000000001 kvar=21.66656214830889 Phases=3

New Load.load_p1ulv14875 conn=wye bus1=p1ulv14875.1.2 kV=0.2080002494301389 Vminpu=0.8 Vmaxpu=1.2 model=1 kW=4.79005 kvar=0.9701519425997696 Phases=2

New Load.load_p1ulv14878 conn=wye bus1=p1ulv14878.1.2 kV=0.2080002494301389 Vminpu=0.8 Vmaxpu=1.2 model=1 kW=6.36006 kvar=1.2914652651519052 Phases=2

New Load.load_p1ulv14921 conn=wye bus1=p1ulv14921.1.2 kV=0.2080002494301389 Vminpu=0.8 Vmaxpu=1.2 model=1 kW=1.62002 kvar=0.32980578945097516 Phases=2

New Load.load_p1ulv14923 conn=wye bus1=p1ulv14923.1.2.3 kV=0.48 Vminpu=0.8 Vmaxpu=1.2 model=1 kW=30.0203 kvar=6.095881909830999 Phases=3

New Load.load_p1ulv14925 conn=wye bus1=p1ulv14925.1.2 kV=0.2080002494301389 Vminpu=0.8 Vmaxpu=1.2 model=1 kW=4.55005 kvar=0.9191546616517607 Phases=2

New Load.load_p1ulv14928 conn=wye bus1=p1ulv14928.1.2 kV=0.2080002494301389 Vminpu=0.8 Vmaxpu=1.2 model=1 kW=1.38001 kvar=0.28022298226153225 Phases=2

New Load.load_p1ulv14940 conn=wye bus1=p1ulv14940.1.2 kV=0.2080002494301389 Vminpu=0.8 Vmaxpu=1.2 model=1 kW=4.36004 kvar=0.8807707807580453 Phases=2

New Load.load_p1ulv14967 conn=wye bus1=p1ulv14967.1.2 kV=0.2080002494301389 Vminpu=0.8 Vmaxpu=1.2 model=1 kW=3.87004 kvar=0.7898859035382418 Phases=2

New Load.load_p1ulv14970 conn=wye bus1=p1ulv14970.1.2.3 kV=0.48 Vminpu=0.8 Vmaxpu=1.2 model=1 kW=30.8003 kvar=6.254267665125522 Phases=3

New Load.load_p1ulv14975 conn=wye bus1=p1ulv14975.1.2 kV=0.2080002494301389 Vminpu=0.8 Vmaxpu=1.2 model=1 kW=3.84004 kvar=0.7797533791810017 Phases=2

New Load.load_p1ulv14985 conn=wye bus1=p1ulv14985.1.2 kV=0.2080002494301389 Vminpu=0.8 Vmaxpu=1.2 model=1 kW=3.55004 kvar=0.7208663675971405 Phases=2

New Load.load_p1ulv15023 conn=wye bus1=p1ulv15023.1.2 kV=0.2080002494301389 Vminpu=0.8 Vmaxpu=1.2 model=1 kW=3.33003 kvar=0.6796683639857601 Phases=2

New Load.load_p1ulv15024 conn=wye bus1=p1ulv15024.1.2 kV=0.2080002494301389 Vminpu=0.8 Vmaxpu=1.2 model=1 kW=4.47004 kvar=0.9100165868800613 Phases=2

New Load.load_p1ulv15026 conn=wye bus1=p1ulv15026.1.2 kV=0.2080002494301389 Vminpu=0.8 Vmaxpu=1.2 model=1 kW=6.28006 kvar=1.2785028247178991 Phases=2

New Load.load_p1ulv15029 conn=wye bus1=p1ulv15029.1.2 kV=0.2080002494301389 Vminpu=0.8 Vmaxpu=1.2 model=1 kW=3.81004 kvar=0.769665394243948 Phases=2

New Load.load_p1ulv15038 conn=wye bus1=p1ulv15038.1.2 kV=0.2080002494301389 Vminpu=0.8 Vmaxpu=1.2 model=1 kW=4.03004 kvar=0.8204408116683792 Phases=2

New Load.load_p1ulv15065 conn=wye bus1=p1ulv15065.1.2 kV=0.2080002494301389 Vminpu=0.8 Vmaxpu=1.2 model=1 kW=4.03004 kvar=0.8204408116683792 Phases=2

New Load.load_p1ulv15068 conn=wye bus1=p1ulv15068.1.2 kV=0.2080002494301389 Vminpu=0.8 Vmaxpu=1.2 model=1 kW=5.53006 kvar=1.1200297390827405 Phases=2

New Load.load_p1ulv15070 conn=wye bus1=p1ulv15070.1.2 kV=0.2080002494301389 Vminpu=0.8 Vmaxpu=1.2 model=1 kW=3.68004 kvar=0.7491873541136322 Phases=2

New Load.load_p1ulv15073 conn=wye bus1=p1ulv15073.1.2 kV=0.2080002494301389 Vminpu=0.8 Vmaxpu=1.2 model=1 kW=4.03004 kvar=0.8204408116683792 Phases=2

New Load.load_p1ulv15084 conn=wye bus1=p1ulv15084.1.2 kV=0.2080002494301389 Vminpu=0.8 Vmaxpu=1.2 model=1 kW=2.01002 kvar=0.41025065989755577 Phases=2

New Load.load_p1ulv15115 conn=wye bus1=p1ulv15115.1.2 kV=0.2080002494301389 Vminpu=0.8 Vmaxpu=1.2 model=1 kW=3.70004 kvar=0.7493869570665965 Phases=2

New Load.load_p1ulv15118 conn=wye bus1=p1ulv15118.1.2 kV=0.2080002494301389 Vminpu=0.8 Vmaxpu=1.2 model=1 kW=5.33005 kvar=1.0795207485629381 Phases=2

New Load.load_p1ulv15121 conn=wye bus1=p1ulv15121.1.2 kV=0.2080002494301389 Vminpu=0.8 Vmaxpu=1.2 model=1 kW=4.68005 kvar=0.9503246847001716 Phases=2

New Load.load_p1ulv15160 conn=wye bus1=p1ulv15160.1.2 kV=0.2080002494301389 Vminpu=0.8 Vmaxpu=1.2 model=1 kW=5.50006 kvar=1.119709405024463 Phases=2

New Load.load_p1ulv15161 conn=wye bus1=p1ulv15161.1.2 kV=0.2080002494301389 Vminpu=0.8 Vmaxpu=1.2 model=1 kW=19.180200000000003 kvar=3.904730190261598 Phases=2

New Load.load_p1ulv15204 conn=wye bus1=p1ulv15204.1.2 kV=0.2080002494301389 Vminpu=0.8 Vmaxpu=1.2 model=1 kW=3.14003 kvar=0.6392514123589496 Phases=2

New Load.load_p1ulv15207 conn=wye bus1=p1ulv15207.1.2 kV=0.2080002494301389 Vminpu=0.8 Vmaxpu=1.2 model=1 kW=3.72004 kvar=0.7495268825292292 Phases=2

New Load.load_p1ulv15218 conn=wye bus1=p1ulv15218.1.2 kV=0.2080002494301389 Vminpu=0.8 Vmaxpu=1.2 model=1 kW=4.37004 kvar=0.8896584561501336 Phases=2

New Load.load_p1ulv15221 conn=wye bus1=p1ulv15221.1.2 kV=0.2080002494301389 Vminpu=0.8 Vmaxpu=1.2 model=1 kW=4.44004 kvar=0.8992627282013091 Phases=2

New Load.load_p1ulv15224 conn=wye bus1=p1ulv15224.1.2 kV=0.2080002494301389 Vminpu=0.8 Vmaxpu=1.2 model=1 kW=4.670050000000001 kvar=0.9507348841529898 Phases=2

New Load.load_p1ulv15245 conn=wye bus1=p1ulv15245.1.2.3 kV=0.48 Vminpu=0.8 Vmaxpu=1.2 model=1 kW=32.1203 kvar=6.522305097162407 Phases=3

New Load.load_p1ulv15267 conn=wye bus1=p1ulv15267.1.2 kV=0.2080002494301389 Vminpu=0.8 Vmaxpu=1.2 model=1 kW=6.700070000000001 kvar=1.3605072403540732 Phases=2

New Load.load_p1ulv15270 conn=wye bus1=p1ulv15270.1.2 kV=0.2080002494301389 Vminpu=0.8 Vmaxpu=1.2 model=1 kW=12.6001 kvar=2.558559429854517 Phases=2

New Load.load_p1ulv15272 conn=wye bus1=p1ulv15272.1.2 kV=0.2080002494301389 Vminpu=0.8 Vmaxpu=1.2 model=1 kW=3.38003 kvar=0.6898735027380501 Phases=2

New Load.load_p1ulv15274 conn=wye bus1=p1ulv15274.1.2 kV=0.2080002494301389 Vminpu=0.8 Vmaxpu=1.2 model=1 kW=4.630050000000001 kvar=0.9401717516684716 Phases=2

New Load.load_p1ulv15313 conn=wye bus1=p1ulv15313.1.2 kV=0.2080002494301389 Vminpu=0.8 Vmaxpu=1.2 model=1 kW=6.22006 kvar=1.2597787689245672 Phases=2

New Load.load_p1ulv15316 conn=wye bus1=p1ulv15316.1.2 kV=0.2080002494301389 Vminpu=0.8 Vmaxpu=1.2 model=1 kW=4.47004 kvar=0.9100165868800613 Phases=2

New Load.load_p1ulv15325 conn=wye bus1=p1ulv15325.1.2 kV=0.2080002494301389 Vminpu=0.8 Vmaxpu=1.2 model=1 kW=6.13006 kvar=1.2511622571972472 Phases=2

New Load.load_p1ulv15356 conn=wye bus1=p1ulv15356.1.2 kV=0.2080002494301389 Vminpu=0.8 Vmaxpu=1.2 model=1 kW=3.66004 kvar=0.7393639251946486 Phases=2

New Load.load_p1ulv15359 conn=wye bus1=p1ulv15359.1.2 kV=0.2080002494301389 Vminpu=0.8 Vmaxpu=1.2 model=1 kW=6.48006 kvar=1.3192190861777544 Phases=2

New Load.load_p1ulv15369 conn=wye bus1=p1ulv15369.1.2 kV=0.2080002494301389 Vminpu=0.8 Vmaxpu=1.2 model=1 kW=8.75009 kvar=1.7813547611863327 Phases=2

New Load.load_p1ulv15397 conn=wye bus1=p1ulv15397.1.2 kV=0.2080002494301389 Vminpu=0.8 Vmaxpu=1.2 model=1 kW=5.49005 kvar=1.1205344401401856 Phases=2

New Load.load_p1ulv15400 conn=wye bus1=p1ulv15400.1.2 kV=0.2080002494301389 Vminpu=0.8 Vmaxpu=1.2 model=1 kW=4.95005 kvar=0.999958579116559 Phases=2

New Load.load_p1ulv15430 conn=wye bus1=p1ulv15430.1.2 kV=0.2080002494301389 Vminpu=0.8 Vmaxpu=1.2 model=1 kW=4.4900400000000005 kvar=0.9093894694941951 Phases=2

New Load.load_p1ulv15432 conn=wye bus1=p1ulv15432.1.2 kV=0.2080002494301389 Vminpu=0.8 Vmaxpu=1.2 model=1 kW=4.55005 kvar=0.9191546616517607 Phases=2

New Load.load_p1ulv15434 conn=wye bus1=p1ulv15434.1.2 kV=0.2080002494301389 Vminpu=0.8 Vmaxpu=1.2 model=1 kW=4.53005 kvar=0.9198658856050712 Phases=2

New Load.load_p1ulv15444 conn=wye bus1=p1ulv15444.1.2 kV=0.2080002494301389 Vminpu=0.8 Vmaxpu=1.2 model=1 kW=3.76004 kvar=0.7595649045608481 Phases=2

New Load.load_p1ulv15471 conn=wye bus1=p1ulv15471.1.2 kV=0.2080002494301389 Vminpu=0.8 Vmaxpu=1.2 model=1 kW=4.44004 kvar=0.8992627282013091 Phases=2

New Load.load_p1ulv15475 conn=wye bus1=p1ulv15475.1.2 kV=0.2080002494301389 Vminpu=0.8 Vmaxpu=1.2 model=1 kW=3.62004 kvar=0.7407437090079797 Phases=2

New Load.load_p1ulv15478 conn=wye bus1=p1ulv15478.1.2 kV=0.2080002494301389 Vminpu=0.8 Vmaxpu=1.2 model=1 kW=3.64004 kvar=0.739141647054201 Phases=2

New Load.load_p1ulv15481 conn=wye bus1=p1ulv15481.1.2 kV=0.2080002494301389 Vminpu=0.8 Vmaxpu=1.2 model=1 kW=14.3001 kvar=2.9037591529323246 Phases=2

New Load.load_p1ulv15490 conn=wye bus1=p1ulv15490.1.2 kV=0.2080002494301389 Vminpu=0.8 Vmaxpu=1.2 model=1 kW=3.06003 kvar=0.6197626431693976 Phases=2

New Load.load_p1ulv15515 conn=wye bus1=p1ulv15515.1.2 kV=0.2080002494301389 Vminpu=0.8 Vmaxpu=1.2 model=1 kW=4.19004 kvar=0.8508239104029033 Phases=2

New Load.load_p1ulv15518 conn=wye bus1=p1ulv15518.1.2 kV=0.2080002494301389 Vminpu=0.8 Vmaxpu=1.2 model=1 kW=1.38001 kvar=0.28022298226153225 Phases=2

New Load.load_p1ulv15521 conn=wye bus1=p1ulv15521.1.2 kV=0.2080002494301389 Vminpu=0.8 Vmaxpu=1.2 model=1 kW=6.16006 kvar=1.2508535330251045 Phases=2

New Load.load_p1ulv15525 conn=wye bus1=p1ulv15525.1.2 kV=0.2080002494301389 Vminpu=0.8 Vmaxpu=1.2 model=1 kW=4.17004 kvar=0.8489421946902781 Phases=2

New Load.load_p1ulv15565 conn=wye bus1=p1ulv15565.1.2 kV=0.2080002494301389 Vminpu=0.8 Vmaxpu=1.2 model=1 kW=2.05002 kvar=0.4194813920123917 Phases=2

New Load.load_p1ulv15567 conn=wye bus1=p1ulv15567.1.2 kV=0.2080002494301389 Vminpu=0.8 Vmaxpu=1.2 model=1 kW=18.2102 kvar=3.697738821877345 Phases=2

New Load.load_p1ulv15572 conn=wye bus1=p1ulv15572.1.2 kV=0.2080002494301389 Vminpu=0.8 Vmaxpu=1.2 model=1 kW=3.7100400000000002 kvar=0.7494644148777485 Phases=2

New Load.load_p1ulv15582 conn=wye bus1=p1ulv15582.1.2 kV=0.2080002494301389 Vminpu=0.8 Vmaxpu=1.2 model=1 kW=4.76005 kvar=0.9690572018099246 Phases=2

New Load.load_p1ulv15591 conn=wye bus1=p1ulv15591.1.2 kV=0.2080002494301389 Vminpu=0.8 Vmaxpu=1.2 model=1 kW=5.78006 kvar=1.1706634455471703 Phases=2

New Load.load_p1ulv15610 conn=wye bus1=p1ulv15610.1.2 kV=0.2080002494301389 Vminpu=0.8 Vmaxpu=1.2 model=1 kW=5.06005 kvar=1.030131593999708 Phases=2

New Load.load_p1ulv15612 conn=wye bus1=p1ulv15612.1.2 kV=0.2080002494301389 Vminpu=0.8 Vmaxpu=1.2 model=1 kW=4.89005 kvar=0.9904054251855413 Phases=2

New Load.load_p1ulv15615 conn=wye bus1=p1ulv15615.1.2 kV=0.2080002494301389 Vminpu=0.8 Vmaxpu=1.2 model=1 kW=4.50005 kvar=0.9090541719686612 Phases=2

New Load.load_p1ulv15625 conn=wye bus1=p1ulv15625.1.2 kV=0.2080002494301389 Vminpu=0.8 Vmaxpu=1.2 model=1 kW=5.170050000000001 kvar=1.0498234284108339 Phases=2

New Load.load_p1ulv15669 conn=wye bus1=p1ulv15669.1.2 kV=0.2080002494301389 Vminpu=0.8 Vmaxpu=1.2 model=1 kW=6.34006 kvar=1.2907177031558559 Phases=2

New Load.load_p1ulv15672 conn=wye bus1=p1ulv15672.1.2 kV=0.2080002494301389 Vminpu=0.8 Vmaxpu=1.2 model=1 kW=16.5102 kvar=3.352539098799538 Phases=2

New Load.load_p1ulv15674 conn=wye bus1=p1ulv15674.1.2 kV=0.2080002494301389 Vminpu=0.8 Vmaxpu=1.2 model=1 kW=5.04005 kvar=1.0207856490641993 Phases=2

New Load.load_p1ulv15677 conn=wye bus1=p1ulv15677.1.2 kV=0.2080002494301389 Vminpu=0.8 Vmaxpu=1.2 model=1 kW=4.65005 kvar=0.9393556410179604 Phases=2

New Load.load_p1ulv15714 conn=wye bus1=p1ulv15714.1.2 kV=0.2080002494301389 Vminpu=0.8 Vmaxpu=1.2 model=1 kW=5.06005 kvar=1.030131593999708 Phases=2

New Load.load_p1ulv15718 conn=wye bus1=p1ulv15718.1.2 kV=0.2080002494301389 Vminpu=0.8 Vmaxpu=1.2 model=1 kW=3.19003 kvar=0.6494304777239135 Phases=2

New Load.load_p1ulv15721 conn=wye bus1=p1ulv15721.1.2 kV=0.2080002494301389 Vminpu=0.8 Vmaxpu=1.2 model=1 kW=4.38004 kvar=0.8894050559233643 Phases=2

New Load.load_p1ulv15732 conn=wye bus1=p1ulv15732.1.2 kV=0.2080002494301389 Vminpu=0.8 Vmaxpu=1.2 model=1 kW=4.77005 kvar=0.9710930148829175 Phases=2

New Load.load_p1ulv15740 conn=wye bus1=p1ulv15740.1.2 kV=0.2080002494301389 Vminpu=0.8 Vmaxpu=1.2 model=1 kW=4.55005 kvar=0.9191546616517607 Phases=2

New Load.load_p1ulv15762 conn=wye bus1=p1ulv15762.1.2 kV=0.2080002494301389 Vminpu=0.8 Vmaxpu=1.2 model=1 kW=5.73006 kvar=1.1605367042542845 Phases=2

New Load.load_p1ulv15764 conn=wye bus1=p1ulv15764.1.2 kV=0.2080002494301389 Vminpu=0.8 Vmaxpu=1.2 model=1 kW=4.200040000000001 kvar=0.8506543699954566 Phases=2

New Load.load_p1ulv15801 conn=wye bus1=p1ulv15801.1.2 kV=0.2080002494301389 Vminpu=0.8 Vmaxpu=1.2 model=1 kW=6.69007 kvar=1.358476653747733 Phases=2

New Load.load_p1ulv15803 conn=wye bus1=p1ulv15803.1.2 kV=0.2080002494301389 Vminpu=0.8 Vmaxpu=1.2 model=1 kW=15.0202 kvar=3.049981694454871 Phases=2

New Load.load_p1ulv15805 conn=wye bus1=p1ulv15805.1.2 kV=0.2080002494301389 Vminpu=0.8 Vmaxpu=1.2 model=1 kW=3.72004 kvar=0.7592704872813721 Phases=2

New Load.load_p1ulv16438 conn=wye bus1=p1ulv16438.1.2 kV=0.2080002494301389 Vminpu=0.8 Vmaxpu=1.2 model=1 kW=1.38001 kvar=0.28022298226153225 Phases=2

New Load.load_p1ulv16440 conn=wye bus1=p1ulv16440.1.2 kV=0.2080002494301389 Vminpu=0.8 Vmaxpu=1.2 model=1 kW=4.10004 kvar=0.8304008874096844 Phases=2

New Load.load_p1ulv16495 conn=wye bus1=p1ulv16495.1.2 kV=0.2080002494301389 Vminpu=0.8 Vmaxpu=1.2 model=1 kW=4.72005 kvar=0.9609139495179535 Phases=2

New Load.load_p1ulv16498 conn=wye bus1=p1ulv16498.1.2 kV=0.2080002494301389 Vminpu=0.8 Vmaxpu=1.2 model=1 kW=4.35004 kvar=0.8810345938741143 Phases=2

New Load.load_p1ulv16501 conn=wye bus1=p1ulv16501.1.2 kV=0.2080002494301389 Vminpu=0.8 Vmaxpu=1.2 model=1 kW=3.97004 kvar=0.8102961810428216 Phases=2

New Load.load_p1ulv16510 conn=wye bus1=p1ulv16510.1.2 kV=0.2080002494301389 Vminpu=0.8 Vmaxpu=1.2 model=1 kW=4.06004 kvar=0.8201678426594468 Phases=2

New Load.load_p1ulv16538 conn=wye bus1=p1ulv16538.1.2 kV=0.2080002494301389 Vminpu=0.8 Vmaxpu=1.2 model=1 kW=4.53005 kvar=0.9198658856050712 Phases=2

New Load.load_p1ulv16542 conn=wye bus1=p1ulv16542.1.2 kV=0.2080002494301389 Vminpu=0.8 Vmaxpu=1.2 model=1 kW=3.67004 kvar=0.749065348529082 Phases=2

...